#======================================================================

# CRYSTAL DATA

#----------------------------------------------------------------------

data_VESTA_phase_1


_chemical_name_common                  'MAPbI3 tetragonal T=150 K             '
_cell_length_a                         24.74590
_cell_length_b                         24.74591
_cell_length_c                         25.49600
_cell_angle_alpha                      90
_cell_angle_beta                       90
_cell_angle_gamma                      90
_space_group_name_H-M_alt              'P 1'
_space_group_IT_number                 1

loop_
_space_group_symop_operation_xyz
   'x, y, z'

loop_
   _atom_site_label
   _atom_site_occupancy
   _atom_site_fract_x
   _atom_site_fract_y
   _atom_site_fract_z
   _atom_site_adp_type
   _atom_site_B_iso_or_equiv
   _atom_site_type_symbol
   C1         1.0     0.122728      0.144966      0.120457     Biso  1.000000 C
   C2         1.0     0.122728      0.144966      0.620457     Biso  1.000000 C
   C3         1.0     0.122728      0.644966      0.120457     Biso  1.000000 C
   C4         1.0     0.122728      0.644966      0.620457     Biso  1.000000 C
   C5         1.0     0.622728      0.144966      0.120457     Biso  1.000000 C
   C6         1.0     0.622728      0.144966      0.620457     Biso  1.000000 C
   C7         1.0     0.622728      0.644966      0.120457     Biso  1.000000 C
   C8         1.0     0.622728      0.644966      0.620457     Biso  1.000000 C
   C9         1.0     0.372728      0.394966      0.120457     Biso  1.000000 C
   C10        1.0     0.372728      0.394966      0.620457     Biso  1.000000 C
   C11        1.0     0.372728      0.894966      0.120457     Biso  1.000000 C
   C12        1.0     0.372728      0.894966      0.620457     Biso  1.000000 C
   C13        1.0     0.872728      0.394966      0.120457     Biso  1.000000 C
   C14        1.0     0.872728      0.394966      0.620457     Biso  1.000000 C
   C15        1.0     0.872728      0.894966      0.120457     Biso  1.000000 C
   C16        1.0     0.872728      0.894966      0.620457     Biso  1.000000 C
   C17        1.0     0.134864      0.404662      0.126331     Biso  1.000000 C
   C18        1.0     0.134864      0.404662      0.626331     Biso  1.000000 C
   C19        1.0     0.134864      0.904662      0.126331     Biso  1.000000 C
   C20        1.0     0.134864      0.904662      0.626331     Biso  1.000000 C
   C21        1.0     0.634864      0.404662      0.126331     Biso  1.000000 C
   C22        1.0     0.634864      0.404662      0.626331     Biso  1.000000 C
   C23        1.0     0.634864      0.904662      0.126331     Biso  1.000000 C
   C24        1.0     0.634864      0.904662      0.626331     Biso  1.000000 C
   C25        1.0     0.384864      0.154662      0.126331     Biso  1.000000 C
   C26        1.0     0.384864      0.154662      0.626331     Biso  1.000000 C
   C27        1.0     0.384864      0.654662      0.126331     Biso  1.000000 C
   C28        1.0     0.384864      0.654662      0.626331     Biso  1.000000 C
   C29        1.0     0.884864      0.154662      0.126331     Biso  1.000000 C
   C30        1.0     0.884864      0.154662      0.626331     Biso  1.000000 C
   C31        1.0     0.884864      0.654662      0.126331     Biso  1.000000 C
   C32        1.0     0.884864      0.654662      0.626331     Biso  1.000000 C
   C33        1.0     0.118786      0.118144      0.395726     Biso  1.000000 C
   C34        1.0     0.118786      0.118144      0.895726     Biso  1.000000 C
   C35        1.0     0.118786      0.618144      0.395726     Biso  1.000000 C
   C36        1.0     0.118786      0.618144      0.895726     Biso  1.000000 C
   C37        1.0     0.618786      0.118144      0.395726     Biso  1.000000 C
   C38        1.0     0.618786      0.118144      0.895726     Biso  1.000000 C
   C39        1.0     0.618786      0.618144      0.395726     Biso  1.000000 C
   C40        1.0     0.618786      0.618144      0.895726     Biso  1.000000 C
   C41        1.0     0.368786      0.368144      0.395726     Biso  1.000000 C
   C42        1.0     0.368786      0.368144      0.895726     Biso  1.000000 C
   C43        1.0     0.368786      0.868144      0.395726     Biso  1.000000 C
   C44        1.0     0.368786      0.868144      0.895726     Biso  1.000000 C
   C45        1.0     0.868786      0.368144      0.395726     Biso  1.000000 C
   C46        1.0     0.868786      0.368144      0.895726     Biso  1.000000 C
   C47        1.0     0.868786      0.868144      0.395726     Biso  1.000000 C
   C48        1.0     0.868786      0.868144      0.895726     Biso  1.000000 C
   C49        1.0     0.112598      0.347285      0.376042     Biso  1.000000 C
   C50        1.0     0.112598      0.347285      0.876042     Biso  1.000000 C
   C51        1.0     0.112598      0.847285      0.376042     Biso  1.000000 C
   C52        1.0     0.112598      0.847285      0.876042     Biso  1.000000 C
   C53        1.0     0.612598      0.347285      0.376042     Biso  1.000000 C
   C54        1.0     0.612598      0.347285      0.876042     Biso  1.000000 C
   C55        1.0     0.612598      0.847285      0.376042     Biso  1.000000 C
   C56        1.0     0.612598      0.847285      0.876042     Biso  1.000000 C
   C57        1.0     0.362598      0.097285      0.376042     Biso  1.000000 C
   C58        1.0     0.362598      0.097285      0.876042     Biso  1.000000 C
   C59        1.0     0.362598      0.597285      0.376042     Biso  1.000000 C
   C60        1.0     0.362598      0.597285      0.876042     Biso  1.000000 C
   C61        1.0     0.862598      0.097285      0.376042     Biso  1.000000 C
   C62        1.0     0.862598      0.097285      0.876042     Biso  1.000000 C
   C63        1.0     0.862598      0.597285      0.376042     Biso  1.000000 C
   C64        1.0     0.862598      0.597285      0.876042     Biso  1.000000 C
   H1         1.0     0.355415      0.187818      0.127539     Biso  1.000000 H
   H2         1.0     0.355415      0.187818      0.627539     Biso  1.000000 H
   H3         1.0     0.355415      0.687818      0.127539     Biso  1.000000 H
   H4         1.0     0.355415      0.687818      0.627539     Biso  1.000000 H
   H5         1.0     0.855415      0.187818      0.127539     Biso  1.000000 H
   H6         1.0     0.855415      0.187818      0.627539     Biso  1.000000 H
   H7         1.0     0.855415      0.687818      0.127539     Biso  1.000000 H
   H8         1.0     0.855415      0.687818      0.627539     Biso  1.000000 H
   H9         1.0     0.105415      0.437818      0.127539     Biso  1.000000 H
   H10        1.0     0.105415      0.437818      0.627539     Biso  1.000000 H
   H11        1.0     0.105415      0.937818      0.127539     Biso  1.000000 H
   H12        1.0     0.105415      0.937818      0.627539     Biso  1.000000 H
   H13        1.0     0.605415      0.437818      0.127539     Biso  1.000000 H
   H14        1.0     0.605415      0.437818      0.627539     Biso  1.000000 H
   H15        1.0     0.605415      0.937818      0.127539     Biso  1.000000 H
   H16        1.0     0.605415      0.937818      0.627539     Biso  1.000000 H
   H17        1.0     0.165841      0.412137      0.096495     Biso  1.000000 H
   H18        1.0     0.165841      0.412137      0.596495     Biso  1.000000 H
   H19        1.0     0.165841      0.912137      0.096495     Biso  1.000000 H
   H20        1.0     0.165841      0.912137      0.596495     Biso  1.000000 H
   H21        1.0     0.665841      0.412137      0.096495     Biso  1.000000 H
   H22        1.0     0.665841      0.412137      0.596495     Biso  1.000000 H
   H23        1.0     0.665841      0.912137      0.096495     Biso  1.000000 H
   H24        1.0     0.665841      0.912137      0.596495     Biso  1.000000 H
   H25        1.0     0.415841      0.162137      0.096495     Biso  1.000000 H
   H26        1.0     0.415841      0.162137      0.596495     Biso  1.000000 H
   H27        1.0     0.415841      0.662137      0.096495     Biso  1.000000 H
   H28        1.0     0.415841      0.662137      0.596495     Biso  1.000000 H
   H29        1.0     0.915841      0.162137      0.096495     Biso  1.000000 H
   H30        1.0     0.915841      0.162137      0.596495     Biso  1.000000 H
   H31        1.0     0.915841      0.662137      0.096495     Biso  1.000000 H
   H32        1.0     0.915841      0.662137      0.596495     Biso  1.000000 H
   H33        1.0     0.153427      0.399260      0.165009     Biso  1.000000 H
   H34        1.0     0.153427      0.399260      0.665009     Biso  1.000000 H
   H35        1.0     0.153427      0.899260      0.165009     Biso  1.000000 H
   H36        1.0     0.153427      0.899260      0.665009     Biso  1.000000 H
   H37        1.0     0.653427      0.399260      0.165009     Biso  1.000000 H
   H38        1.0     0.653427      0.399260      0.665009     Biso  1.000000 H
   H39        1.0     0.653427      0.899260      0.165009     Biso  1.000000 H
   H40        1.0     0.653427      0.899260      0.665009     Biso  1.000000 H
   H41        1.0     0.403427      0.149260      0.165009     Biso  1.000000 H
   H42        1.0     0.403427      0.149260      0.665009     Biso  1.000000 H
   H43        1.0     0.403427      0.649260      0.165009     Biso  1.000000 H
   H44        1.0     0.403427      0.649260      0.665009     Biso  1.000000 H
   H45        1.0     0.903427      0.149260      0.165009     Biso  1.000000 H
   H46        1.0     0.903427      0.149260      0.665009     Biso  1.000000 H
   H47        1.0     0.903427      0.649260      0.165009     Biso  1.000000 H
   H48        1.0     0.903427      0.649260      0.665009     Biso  1.000000 H
   H49        1.0     0.325190      0.096254      0.138998     Biso  1.000000 H
   H50        1.0     0.325190      0.096254      0.638998     Biso  1.000000 H
   H51        1.0     0.325190      0.596254      0.138998     Biso  1.000000 H
   H52        1.0     0.325190      0.596254      0.638998     Biso  1.000000 H
   H53        1.0     0.825190      0.096254      0.138998     Biso  1.000000 H
   H54        1.0     0.825190      0.096254      0.638998     Biso  1.000000 H
   H55        1.0     0.825190      0.596254      0.138998     Biso  1.000000 H
   H56        1.0     0.825190      0.596254      0.638998     Biso  1.000000 H
   H57        1.0     0.075190      0.346254      0.138998     Biso  1.000000 H
   H58        1.0     0.075190      0.346254      0.638998     Biso  1.000000 H
   H59        1.0     0.075190      0.846254      0.138998     Biso  1.000000 H
   H60        1.0     0.075190      0.846254      0.638998     Biso  1.000000 H
   H61        1.0     0.575190      0.346254      0.138998     Biso  1.000000 H
   H62        1.0     0.575190      0.346254      0.638998     Biso  1.000000 H
   H63        1.0     0.575190      0.846254      0.138998     Biso  1.000000 H
   H64        1.0     0.575190      0.846254      0.638998     Biso  1.000000 H
   H65        1.0     0.379929      0.070767      0.109800     Biso  1.000000 H
   H66        1.0     0.379929      0.070767      0.609800     Biso  1.000000 H
   H67        1.0     0.379929      0.570767      0.109800     Biso  1.000000 H
   H68        1.0     0.379929      0.570767      0.609800     Biso  1.000000 H
   H69        1.0     0.879929      0.070767      0.109800     Biso  1.000000 H
   H70        1.0     0.879929      0.070767      0.609800     Biso  1.000000 H
   H71        1.0     0.879929      0.570767      0.109800     Biso  1.000000 H
   H72        1.0     0.879929      0.570767      0.609800     Biso  1.000000 H
   H73        1.0     0.129929      0.320767      0.109800     Biso  1.000000 H
   H74        1.0     0.129929      0.320767      0.609800     Biso  1.000000 H
   H75        1.0     0.129929      0.820767      0.109800     Biso  1.000000 H
   H76        1.0     0.129929      0.820767      0.609800     Biso  1.000000 H
   H77        1.0     0.629929      0.320767      0.109800     Biso  1.000000 H
   H78        1.0     0.629929      0.320767      0.609800     Biso  1.000000 H
   H79        1.0     0.629929      0.820767      0.109800     Biso  1.000000 H
   H80        1.0     0.629929      0.820767      0.609800     Biso  1.000000 H
   H81        1.0     0.335636      0.108891      0.075190     Biso  1.000000 H
   H82        1.0     0.335636      0.108891      0.575190     Biso  1.000000 H
   H83        1.0     0.335636      0.608891      0.075190     Biso  1.000000 H
   H84        1.0     0.335636      0.608891      0.575190     Biso  1.000000 H
   H85        1.0     0.835636      0.108891      0.075190     Biso  1.000000 H
   H86        1.0     0.835636      0.108891      0.575190     Biso  1.000000 H
   H87        1.0     0.835636      0.608891      0.075190     Biso  1.000000 H
   H88        1.0     0.835636      0.608891      0.575190     Biso  1.000000 H
   H89        1.0     0.085636      0.358891      0.075190     Biso  1.000000 H
   H90        1.0     0.085636      0.358891      0.575190     Biso  1.000000 H
   H91        1.0     0.085636      0.858891      0.075190     Biso  1.000000 H
   H92        1.0     0.085636      0.858891      0.575190     Biso  1.000000 H
   H93        1.0     0.585636      0.358891      0.075190     Biso  1.000000 H
   H94        1.0     0.585636      0.358891      0.575190     Biso  1.000000 H
   H95        1.0     0.585636      0.858891      0.075190     Biso  1.000000 H
   H96        1.0     0.585636      0.858891      0.575190     Biso  1.000000 H
   H97        1.0     0.446729      0.353386      0.130323     Biso  1.000000 H
   H98        1.0     0.446729      0.353386      0.630323     Biso  1.000000 H
   H99        1.0     0.446729      0.853386      0.130323     Biso  1.000000 H
   H100       1.0     0.446729      0.853386      0.630323     Biso  1.000000 H
   H101       1.0     0.946729      0.353386      0.130323     Biso  1.000000 H
   H102       1.0     0.946729      0.353386      0.630323     Biso  1.000000 H
   H103       1.0     0.946729      0.853386      0.130323     Biso  1.000000 H
   H104       1.0     0.946729      0.853386      0.630323     Biso  1.000000 H
   H105       1.0     0.196729      0.103386      0.130323     Biso  1.000000 H
   H106       1.0     0.196729      0.103386      0.630323     Biso  1.000000 H
   H107       1.0     0.196729      0.603386      0.130323     Biso  1.000000 H
   H108       1.0     0.196729      0.603386      0.630323     Biso  1.000000 H
   H109       1.0     0.696729      0.103386      0.130323     Biso  1.000000 H
   H110       1.0     0.696729      0.103386      0.630323     Biso  1.000000 H
   H111       1.0     0.696729      0.603386      0.130323     Biso  1.000000 H
   H112       1.0     0.696729      0.603386      0.630323     Biso  1.000000 H
   H113       1.0     0.410798      0.359068      0.186526     Biso  1.000000 H
   H114       1.0     0.410798      0.359068      0.686526     Biso  1.000000 H
   H115       1.0     0.410798      0.859068      0.186526     Biso  1.000000 H
   H116       1.0     0.410798      0.859068      0.686526     Biso  1.000000 H
   H117       1.0     0.910798      0.359068      0.186526     Biso  1.000000 H
   H118       1.0     0.910798      0.359068      0.686526     Biso  1.000000 H
   H119       1.0     0.910798      0.859068      0.186526     Biso  1.000000 H
   H120       1.0     0.910798      0.859068      0.686526     Biso  1.000000 H
   H121       1.0     0.160798      0.109068      0.186526     Biso  1.000000 H
   H122       1.0     0.160798      0.109068      0.686526     Biso  1.000000 H
   H123       1.0     0.160798      0.609068      0.186526     Biso  1.000000 H
   H124       1.0     0.160798      0.609068      0.686526     Biso  1.000000 H
   H125       1.0     0.660798      0.109068      0.186526     Biso  1.000000 H
   H126       1.0     0.660798      0.109068      0.686526     Biso  1.000000 H
   H127       1.0     0.660798      0.609068      0.186526     Biso  1.000000 H
   H128       1.0     0.660798      0.609068      0.686526     Biso  1.000000 H
   H129       1.0     0.446376      0.411411      0.161652     Biso  1.000000 H
   H130       1.0     0.446376      0.411411      0.661652     Biso  1.000000 H
   H131       1.0     0.446376      0.911411      0.161652     Biso  1.000000 H
   H132       1.0     0.446376      0.911411      0.661652     Biso  1.000000 H
   H133       1.0     0.946376      0.411411      0.161652     Biso  1.000000 H
   H134       1.0     0.946376      0.411411      0.661652     Biso  1.000000 H
   H135       1.0     0.946376      0.911411      0.161652     Biso  1.000000 H
   H136       1.0     0.946376      0.911411      0.661652     Biso  1.000000 H
   H137       1.0     0.196376      0.161411      0.161652     Biso  1.000000 H
   H138       1.0     0.196376      0.161411      0.661652     Biso  1.000000 H
   H139       1.0     0.196376      0.661411      0.161652     Biso  1.000000 H
   H140       1.0     0.196376      0.661411      0.661652     Biso  1.000000 H
   H141       1.0     0.696376      0.161411      0.161652     Biso  1.000000 H
   H142       1.0     0.696376      0.161411      0.661652     Biso  1.000000 H
   H143       1.0     0.696376      0.661411      0.161652     Biso  1.000000 H
   H144       1.0     0.696376      0.661411      0.661652     Biso  1.000000 H
   H145       1.0     0.118992      0.118010      0.086501     Biso  1.000000 H
   H146       1.0     0.118992      0.118010      0.586501     Biso  1.000000 H
   H147       1.0     0.118992      0.618010      0.086501     Biso  1.000000 H
   H148       1.0     0.118992      0.618010      0.586501     Biso  1.000000 H
   H149       1.0     0.618992      0.118010      0.086501     Biso  1.000000 H
   H150       1.0     0.618992      0.118010      0.586501     Biso  1.000000 H
   H151       1.0     0.618992      0.618010      0.086501     Biso  1.000000 H
   H152       1.0     0.618992      0.618010      0.586501     Biso  1.000000 H
   H153       1.0     0.368992      0.368010      0.086501     Biso  1.000000 H
   H154       1.0     0.368992      0.368010      0.586501     Biso  1.000000 H
   H155       1.0     0.368992      0.868010      0.086501     Biso  1.000000 H
   H156       1.0     0.368992      0.868010      0.586501     Biso  1.000000 H
   H157       1.0     0.868992      0.368010      0.086501     Biso  1.000000 H
   H158       1.0     0.868992      0.368010      0.586501     Biso  1.000000 H
   H159       1.0     0.868992      0.868010      0.086501     Biso  1.000000 H
   H160       1.0     0.868992      0.868010      0.586501     Biso  1.000000 H
   H161       1.0     0.378561      0.436181      0.106292     Biso  1.000000 H
   H162       1.0     0.378561      0.436181      0.606292     Biso  1.000000 H
   H163       1.0     0.378561      0.936181      0.106292     Biso  1.000000 H
   H164       1.0     0.378561      0.936181      0.606292     Biso  1.000000 H
   H165       1.0     0.878561      0.436181      0.106292     Biso  1.000000 H
   H166       1.0     0.878561      0.436181      0.606292     Biso  1.000000 H
   H167       1.0     0.878561      0.936181      0.106292     Biso  1.000000 H
   H168       1.0     0.878561      0.936181      0.606292     Biso  1.000000 H
   H169       1.0     0.128561      0.186181      0.106292     Biso  1.000000 H
   H170       1.0     0.128561      0.186181      0.606292     Biso  1.000000 H
   H171       1.0     0.128561      0.686181      0.106292     Biso  1.000000 H
   H172       1.0     0.128561      0.686181      0.606292     Biso  1.000000 H
   H173       1.0     0.628561      0.186181      0.106292     Biso  1.000000 H
   H174       1.0     0.628561      0.186181      0.606292     Biso  1.000000 H
   H175       1.0     0.628561      0.686181      0.106292     Biso  1.000000 H
   H176       1.0     0.628561      0.686181      0.606292     Biso  1.000000 H
   H177       1.0     0.087408      0.142771      0.146124     Biso  1.000000 H
   H178       1.0     0.087408      0.142771      0.646124     Biso  1.000000 H
   H179       1.0     0.087408      0.642771      0.146124     Biso  1.000000 H
   H180       1.0     0.087408      0.642771      0.646124     Biso  1.000000 H
   H181       1.0     0.587408      0.142771      0.146124     Biso  1.000000 H
   H182       1.0     0.587408      0.142771      0.646124     Biso  1.000000 H
   H183       1.0     0.587408      0.642771      0.146124     Biso  1.000000 H
   H184       1.0     0.587408      0.642771      0.646124     Biso  1.000000 H
   H185       1.0     0.337408      0.392771      0.146124     Biso  1.000000 H
   H186       1.0     0.337408      0.392771      0.646124     Biso  1.000000 H
   H187       1.0     0.337408      0.892771      0.146124     Biso  1.000000 H
   H188       1.0     0.337408      0.892771      0.646124     Biso  1.000000 H
   H189       1.0     0.837408      0.392771      0.146124     Biso  1.000000 H
   H190       1.0     0.837408      0.392771      0.646124     Biso  1.000000 H
   H191       1.0     0.837408      0.892771      0.146124     Biso  1.000000 H
   H192       1.0     0.837408      0.892771      0.646124     Biso  1.000000 H
   H193       1.0     0.324598      0.382036      0.327127     Biso  1.000000 H
   H194       1.0     0.324598      0.382036      0.827127     Biso  1.000000 H
   H195       1.0     0.324598      0.882036      0.327127     Biso  1.000000 H
   H196       1.0     0.324598      0.882036      0.827127     Biso  1.000000 H
   H197       1.0     0.824598      0.382036      0.327127     Biso  1.000000 H
   H198       1.0     0.824598      0.382036      0.827127     Biso  1.000000 H
   H199       1.0     0.824598      0.882036      0.327127     Biso  1.000000 H
   H200       1.0     0.824598      0.882036      0.827127     Biso  1.000000 H
   H201       1.0     0.074598      0.132036      0.327127     Biso  1.000000 H
   H202       1.0     0.074598      0.132036      0.827127     Biso  1.000000 H
   H203       1.0     0.074598      0.632036      0.327127     Biso  1.000000 H
   H204       1.0     0.074598      0.632036      0.827127     Biso  1.000000 H
   H205       1.0     0.574598      0.132036      0.327127     Biso  1.000000 H
   H206       1.0     0.574598      0.132036      0.827127     Biso  1.000000 H
   H207       1.0     0.574598      0.632036      0.327127     Biso  1.000000 H
   H208       1.0     0.574598      0.632036      0.827127     Biso  1.000000 H
   H209       1.0     0.321872      0.434668      0.368492     Biso  1.000000 H
   H210       1.0     0.321872      0.434668      0.868492     Biso  1.000000 H
   H211       1.0     0.321872      0.934668      0.368492     Biso  1.000000 H
   H212       1.0     0.321872      0.934668      0.868492     Biso  1.000000 H
   H213       1.0     0.821872      0.434668      0.368492     Biso  1.000000 H
   H214       1.0     0.821872      0.434668      0.868492     Biso  1.000000 H
   H215       1.0     0.821872      0.934668      0.368492     Biso  1.000000 H
   H216       1.0     0.821872      0.934668      0.868492     Biso  1.000000 H
   H217       1.0     0.071872      0.184668      0.368492     Biso  1.000000 H
   H218       1.0     0.071872      0.184668      0.868492     Biso  1.000000 H
   H219       1.0     0.071872      0.684668      0.368492     Biso  1.000000 H
   H220       1.0     0.071872      0.684668      0.868492     Biso  1.000000 H
   H221       1.0     0.571872      0.184668      0.368492     Biso  1.000000 H
   H222       1.0     0.571872      0.184668      0.868492     Biso  1.000000 H
   H223       1.0     0.571872      0.684668      0.368492     Biso  1.000000 H
   H224       1.0     0.571872      0.684668      0.868492     Biso  1.000000 H
   H225       1.0     0.286520      0.379579      0.381772     Biso  1.000000 H
   H226       1.0     0.286520      0.379579      0.881772     Biso  1.000000 H
   H227       1.0     0.286520      0.879579      0.381772     Biso  1.000000 H
   H228       1.0     0.286520      0.879579      0.881772     Biso  1.000000 H
   H229       1.0     0.786520      0.379579      0.381772     Biso  1.000000 H
   H230       1.0     0.786520      0.379579      0.881772     Biso  1.000000 H
   H231       1.0     0.786520      0.879579      0.381772     Biso  1.000000 H
   H232       1.0     0.786520      0.879579      0.881772     Biso  1.000000 H
   H233       1.0     0.036520      0.129579      0.381772     Biso  1.000000 H
   H234       1.0     0.036520      0.129579      0.881772     Biso  1.000000 H
   H235       1.0     0.036520      0.629579      0.381772     Biso  1.000000 H
   H236       1.0     0.036520      0.629579      0.881772     Biso  1.000000 H
   H237       1.0     0.536520      0.129579      0.381772     Biso  1.000000 H
   H238       1.0     0.536520      0.129579      0.881772     Biso  1.000000 H
   H239       1.0     0.536520      0.629579      0.381772     Biso  1.000000 H
   H240       1.0     0.536520      0.629579      0.881772     Biso  1.000000 H
   H241       1.0     0.116924      0.132161      0.436490     Biso  1.000000 H
   H242       1.0     0.116924      0.132161      0.936490     Biso  1.000000 H
   H243       1.0     0.116924      0.632161      0.436490     Biso  1.000000 H
   H244       1.0     0.116924      0.632161      0.936490     Biso  1.000000 H
   H245       1.0     0.616924      0.132161      0.436490     Biso  1.000000 H
   H246       1.0     0.616924      0.132161      0.936490     Biso  1.000000 H
   H247       1.0     0.616924      0.632161      0.436490     Biso  1.000000 H
   H248       1.0     0.616924      0.632161      0.936490     Biso  1.000000 H
   H249       1.0     0.366924      0.382161      0.436490     Biso  1.000000 H
   H250       1.0     0.366924      0.382161      0.936490     Biso  1.000000 H
   H251       1.0     0.366924      0.882161      0.436490     Biso  1.000000 H
   H252       1.0     0.366924      0.882161      0.936490     Biso  1.000000 H
   H253       1.0     0.866924      0.382161      0.436490     Biso  1.000000 H
   H254       1.0     0.866924      0.382161      0.936490     Biso  1.000000 H
   H255       1.0     0.866924      0.882161      0.436490     Biso  1.000000 H
   H256       1.0     0.866924      0.882161      0.936490     Biso  1.000000 H
   H257       1.0     0.157067      0.131145      0.377863     Biso  1.000000 H
   H258       1.0     0.157067      0.131145      0.877863     Biso  1.000000 H
   H259       1.0     0.157067      0.631145      0.377863     Biso  1.000000 H
   H260       1.0     0.157067      0.631145      0.877863     Biso  1.000000 H
   H261       1.0     0.657067      0.131145      0.377863     Biso  1.000000 H
   H262       1.0     0.657067      0.131145      0.877863     Biso  1.000000 H
   H263       1.0     0.657067      0.631145      0.377863     Biso  1.000000 H
   H264       1.0     0.657067      0.631145      0.877863     Biso  1.000000 H
   H265       1.0     0.407067      0.381145      0.377863     Biso  1.000000 H
   H266       1.0     0.407067      0.381145      0.877863     Biso  1.000000 H
   H267       1.0     0.407067      0.881145      0.377863     Biso  1.000000 H
   H268       1.0     0.407067      0.881145      0.877863     Biso  1.000000 H
   H269       1.0     0.907067      0.381145      0.377863     Biso  1.000000 H
   H270       1.0     0.907067      0.381145      0.877863     Biso  1.000000 H
   H271       1.0     0.907067      0.881145      0.377863     Biso  1.000000 H
   H272       1.0     0.907067      0.881145      0.877863     Biso  1.000000 H
   H273       1.0     0.364733      0.324083      0.393395     Biso  1.000000 H
   H274       1.0     0.364733      0.324083      0.893395     Biso  1.000000 H
   H275       1.0     0.364733      0.824083      0.393395     Biso  1.000000 H
   H276       1.0     0.364733      0.824083      0.893395     Biso  1.000000 H
   H277       1.0     0.864733      0.324083      0.393395     Biso  1.000000 H
   H278       1.0     0.864733      0.324083      0.893395     Biso  1.000000 H
   H279       1.0     0.864733      0.824083      0.393395     Biso  1.000000 H
   H280       1.0     0.864733      0.824083      0.893395     Biso  1.000000 H
   H281       1.0     0.114733      0.074083      0.393395     Biso  1.000000 H
   H282       1.0     0.114733      0.074083      0.893395     Biso  1.000000 H
   H283       1.0     0.114733      0.574083      0.393395     Biso  1.000000 H
   H284       1.0     0.114733      0.574083      0.893395     Biso  1.000000 H
   H285       1.0     0.614733      0.074083      0.393395     Biso  1.000000 H
   H286       1.0     0.614733      0.074083      0.893395     Biso  1.000000 H
   H287       1.0     0.614733      0.574083      0.393395     Biso  1.000000 H
   H288       1.0     0.614733      0.574083      0.893395     Biso  1.000000 H
   H289       1.0     0.383829      0.173478      0.406104     Biso  1.000000 H
   H290       1.0     0.383829      0.173478      0.906104     Biso  1.000000 H
   H291       1.0     0.383829      0.673478      0.406104     Biso  1.000000 H
   H292       1.0     0.383829      0.673478      0.906104     Biso  1.000000 H
   H293       1.0     0.883829      0.173478      0.406104     Biso  1.000000 H
   H294       1.0     0.883829      0.173478      0.906104     Biso  1.000000 H
   H295       1.0     0.883829      0.673478      0.406104     Biso  1.000000 H
   H296       1.0     0.883829      0.673478      0.906104     Biso  1.000000 H
   H297       1.0     0.133829      0.423478      0.406104     Biso  1.000000 H
   H298       1.0     0.133829      0.423478      0.906104     Biso  1.000000 H
   H299       1.0     0.133829      0.923478      0.406104     Biso  1.000000 H
   H300       1.0     0.133829      0.923478      0.906104     Biso  1.000000 H
   H301       1.0     0.633829      0.423478      0.406104     Biso  1.000000 H
   H302       1.0     0.633829      0.423478      0.906104     Biso  1.000000 H
   H303       1.0     0.633829      0.923478      0.406104     Biso  1.000000 H
   H304       1.0     0.633829      0.923478      0.906104     Biso  1.000000 H
   H305       1.0     0.339070      0.177161      0.357062     Biso  1.000000 H
   H306       1.0     0.339070      0.177161      0.857062     Biso  1.000000 H
   H307       1.0     0.339070      0.677161      0.357062     Biso  1.000000 H
   H308       1.0     0.339070      0.677161      0.857062     Biso  1.000000 H
   H309       1.0     0.839070      0.177161      0.357062     Biso  1.000000 H
   H310       1.0     0.839070      0.177161      0.857062     Biso  1.000000 H
   H311       1.0     0.839070      0.677161      0.357062     Biso  1.000000 H
   H312       1.0     0.839070      0.677161      0.857062     Biso  1.000000 H
   H313       1.0     0.089070      0.427161      0.357062     Biso  1.000000 H
   H314       1.0     0.089070      0.427161      0.857062     Biso  1.000000 H
   H315       1.0     0.089070      0.927161      0.357062     Biso  1.000000 H
   H316       1.0     0.089070      0.927161      0.857062     Biso  1.000000 H
   H317       1.0     0.589070      0.427161      0.357062     Biso  1.000000 H
   H318       1.0     0.589070      0.427161      0.857062     Biso  1.000000 H
   H319       1.0     0.589070      0.927161      0.357062     Biso  1.000000 H
   H320       1.0     0.589070      0.927161      0.857062     Biso  1.000000 H
   H321       1.0     0.404532      0.163188      0.343753     Biso  1.000000 H
   H322       1.0     0.404532      0.163188      0.843753     Biso  1.000000 H
   H323       1.0     0.404532      0.663188      0.343753     Biso  1.000000 H
   H324       1.0     0.404532      0.663188      0.843753     Biso  1.000000 H
   H325       1.0     0.904532      0.163188      0.343753     Biso  1.000000 H
   H326       1.0     0.904532      0.163188      0.843753     Biso  1.000000 H
   H327       1.0     0.904532      0.663188      0.343753     Biso  1.000000 H
   H328       1.0     0.904532      0.663188      0.843753     Biso  1.000000 H
   H329       1.0     0.154532      0.413188      0.343753     Biso  1.000000 H
   H330       1.0     0.154532      0.413188      0.843753     Biso  1.000000 H
   H331       1.0     0.154532      0.913188      0.343753     Biso  1.000000 H
   H332       1.0     0.154532      0.913188      0.843753     Biso  1.000000 H
   H333       1.0     0.654532      0.413188      0.343753     Biso  1.000000 H
   H334       1.0     0.654532      0.413188      0.843753     Biso  1.000000 H
   H335       1.0     0.654532      0.913188      0.343753     Biso  1.000000 H
   H336       1.0     0.654532      0.913188      0.843753     Biso  1.000000 H
   H337       1.0     0.078660      0.342117      0.402998     Biso  1.000000 H
   H338       1.0     0.078660      0.342117      0.902998     Biso  1.000000 H
   H339       1.0     0.078660      0.842117      0.402998     Biso  1.000000 H
   H340       1.0     0.078660      0.842117      0.902998     Biso  1.000000 H
   H341       1.0     0.578660      0.342117      0.402998     Biso  1.000000 H
   H342       1.0     0.578660      0.342117      0.902998     Biso  1.000000 H
   H343       1.0     0.578660      0.842117      0.402998     Biso  1.000000 H
   H344       1.0     0.578660      0.842117      0.902998     Biso  1.000000 H
   H345       1.0     0.328660      0.092117      0.402998     Biso  1.000000 H
   H346       1.0     0.328660      0.092117      0.902998     Biso  1.000000 H
   H347       1.0     0.328660      0.592117      0.402998     Biso  1.000000 H
   H348       1.0     0.328660      0.592117      0.902998     Biso  1.000000 H
   H349       1.0     0.828660      0.092117      0.402998     Biso  1.000000 H
   H350       1.0     0.828660      0.092117      0.902998     Biso  1.000000 H
   H351       1.0     0.828660      0.592117      0.402998     Biso  1.000000 H
   H352       1.0     0.828660      0.592117      0.902998     Biso  1.000000 H
   H353       1.0     0.149275      0.327844      0.391139     Biso  1.000000 H
   H354       1.0     0.149275      0.327844      0.891139     Biso  1.000000 H
   H355       1.0     0.149275      0.827844      0.391139     Biso  1.000000 H
   H356       1.0     0.149275      0.827844      0.891139     Biso  1.000000 H
   H357       1.0     0.649275      0.327844      0.391139     Biso  1.000000 H
   H358       1.0     0.649275      0.327844      0.891139     Biso  1.000000 H
   H359       1.0     0.649275      0.827844      0.391139     Biso  1.000000 H
   H360       1.0     0.649275      0.827844      0.891139     Biso  1.000000 H
   H361       1.0     0.399275      0.077844      0.391139     Biso  1.000000 H
   H362       1.0     0.399275      0.077844      0.891139     Biso  1.000000 H
   H363       1.0     0.399275      0.577844      0.391139     Biso  1.000000 H
   H364       1.0     0.399275      0.577844      0.891139     Biso  1.000000 H
   H365       1.0     0.899275      0.077844      0.391139     Biso  1.000000 H
   H366       1.0     0.899275      0.077844      0.891139     Biso  1.000000 H
   H367       1.0     0.899275      0.577844      0.391139     Biso  1.000000 H
   H368       1.0     0.899275      0.577844      0.891139     Biso  1.000000 H
   H369       1.0     0.352337      0.080824      0.337382     Biso  1.000000 H
   H370       1.0     0.352337      0.080824      0.837382     Biso  1.000000 H
   H371       1.0     0.352337      0.580824      0.337382     Biso  1.000000 H
   H372       1.0     0.352337      0.580824      0.837382     Biso  1.000000 H
   H373       1.0     0.852337      0.080824      0.337382     Biso  1.000000 H
   H374       1.0     0.852337      0.080824      0.837382     Biso  1.000000 H
   H375       1.0     0.852337      0.580824      0.337382     Biso  1.000000 H
   H376       1.0     0.852337      0.580824      0.837382     Biso  1.000000 H
   H377       1.0     0.102337      0.330824      0.337382     Biso  1.000000 H
   H378       1.0     0.102337      0.330824      0.837382     Biso  1.000000 H
   H379       1.0     0.102337      0.830824      0.337382     Biso  1.000000 H
   H380       1.0     0.102337      0.830824      0.837382     Biso  1.000000 H
   H381       1.0     0.602337      0.330824      0.337382     Biso  1.000000 H
   H382       1.0     0.602337      0.330824      0.837382     Biso  1.000000 H
   H383       1.0     0.602337      0.830824      0.337382     Biso  1.000000 H
   H384       1.0     0.602337      0.830824      0.837382     Biso  1.000000 H
   I1         1.0     0.991413      0.002786      0.120974     Biso  1.000000 I
   I2         1.0     0.991413      0.002786      0.620974     Biso  1.000000 I
   I3         1.0     0.991413      0.502786      0.120974     Biso  1.000000 I
   I4         1.0     0.991413      0.502786      0.620974     Biso  1.000000 I
   I5         1.0     0.491413      0.002786      0.120974     Biso  1.000000 I
   I6         1.0     0.491413      0.002786      0.620974     Biso  1.000000 I
   I7         1.0     0.491413      0.502786      0.120974     Biso  1.000000 I
   I8         1.0     0.491413      0.502786      0.620974     Biso  1.000000 I
   I9         1.0     0.241413      0.252786      0.120974     Biso  1.000000 I
   I10        1.0     0.241413      0.252786      0.620974     Biso  1.000000 I
   I11        1.0     0.241413      0.752786      0.120974     Biso  1.000000 I
   I12        1.0     0.241413      0.752786      0.620974     Biso  1.000000 I
   I13        1.0     0.741413      0.252786      0.120974     Biso  1.000000 I
   I14        1.0     0.741413      0.252786      0.620974     Biso  1.000000 I
   I15        1.0     0.741413      0.752786      0.120974     Biso  1.000000 I
   I16        1.0     0.741413      0.752786      0.620974     Biso  1.000000 I
   I17        1.0     0.992523      0.982420      0.369095     Biso  1.000000 I
   I18        1.0     0.992523      0.982420      0.869095     Biso  1.000000 I
   I19        1.0     0.992523      0.482420      0.369095     Biso  1.000000 I
   I20        1.0     0.992523      0.482420      0.869095     Biso  1.000000 I
   I21        1.0     0.492523      0.982420      0.369095     Biso  1.000000 I
   I22        1.0     0.492523      0.982420      0.869095     Biso  1.000000 I
   I23        1.0     0.492523      0.482420      0.369095     Biso  1.000000 I
   I24        1.0     0.492523      0.482420      0.869095     Biso  1.000000 I
   I25        1.0     0.242523      0.232420      0.369095     Biso  1.000000 I
   I26        1.0     0.242523      0.232420      0.869095     Biso  1.000000 I
   I27        1.0     0.242523      0.732420      0.369095     Biso  1.000000 I
   I28        1.0     0.242523      0.732420      0.869095     Biso  1.000000 I
   I29        1.0     0.742523      0.232420      0.369095     Biso  1.000000 I
   I30        1.0     0.742523      0.232420      0.869095     Biso  1.000000 I
   I31        1.0     0.742523      0.732420      0.369095     Biso  1.000000 I
   I32        1.0     0.742523      0.732420      0.869095     Biso  1.000000 I
   I33        1.0     0.245702      0.017003      0.372477     Biso  1.000000 I
   I34        1.0     0.245702      0.017003      0.872477     Biso  1.000000 I
   I35        1.0     0.245702      0.517003      0.372477     Biso  1.000000 I
   I36        1.0     0.245702      0.517003      0.872477     Biso  1.000000 I
   I37        1.0     0.745702      0.017003      0.372477     Biso  1.000000 I
   I38        1.0     0.745702      0.017003      0.872477     Biso  1.000000 I
   I39        1.0     0.745702      0.517003      0.372477     Biso  1.000000 I
   I40        1.0     0.745702      0.517003      0.872477     Biso  1.000000 I
   I41        1.0     0.995702      0.267003      0.372477     Biso  1.000000 I
   I42        1.0     0.995702      0.267003      0.872477     Biso  1.000000 I
   I43        1.0     0.995702      0.767003      0.372477     Biso  1.000000 I
   I44        1.0     0.995702      0.767003      0.872477     Biso  1.000000 I
   I45        1.0     0.495702      0.267003      0.372477     Biso  1.000000 I
   I46        1.0     0.495702      0.267003      0.872477     Biso  1.000000 I
   I47        1.0     0.495702      0.767003      0.372477     Biso  1.000000 I
   I48        1.0     0.495702      0.767003      0.872477     Biso  1.000000 I
   I49        1.0     0.248212      0.991219      0.126519     Biso  1.000000 I
   I50        1.0     0.248212      0.991219      0.626519     Biso  1.000000 I
   I51        1.0     0.248212      0.491219      0.126519     Biso  1.000000 I
   I52        1.0     0.248212      0.491219      0.626519     Biso  1.000000 I
   I53        1.0     0.748212      0.991219      0.126519     Biso  1.000000 I
   I54        1.0     0.748212      0.991219      0.626519     Biso  1.000000 I
   I55        1.0     0.748212      0.491219      0.126519     Biso  1.000000 I
   I56        1.0     0.748212      0.491219      0.626519     Biso  1.000000 I
   I57        1.0     0.998212      0.241219      0.126519     Biso  1.000000 I
   I58        1.0     0.998212      0.241219      0.626519     Biso  1.000000 I
   I59        1.0     0.998212      0.741219      0.126519     Biso  1.000000 I
   I60        1.0     0.998212      0.741219      0.626519     Biso  1.000000 I
   I61        1.0     0.498212      0.241219      0.126519     Biso  1.000000 I
   I62        1.0     0.498212      0.241219      0.626519     Biso  1.000000 I
   I63        1.0     0.498212      0.741219      0.126519     Biso  1.000000 I
   I64        1.0     0.498212      0.741219      0.626519     Biso  1.000000 I
   I65        1.0     0.238925      0.126827      0.035608     Biso  1.000000 I
   I66        1.0     0.238925      0.126827      0.535608     Biso  1.000000 I
   I67        1.0     0.238925      0.626827      0.035608     Biso  1.000000 I
   I68        1.0     0.238925      0.626827      0.535608     Biso  1.000000 I
   I69        1.0     0.738925      0.126827      0.035608     Biso  1.000000 I
   I70        1.0     0.738925      0.126827      0.535608     Biso  1.000000 I
   I71        1.0     0.738925      0.626827      0.035608     Biso  1.000000 I
   I72        1.0     0.738925      0.626827      0.535608     Biso  1.000000 I
   I73        1.0     0.488925      0.376827      0.035608     Biso  1.000000 I
   I74        1.0     0.488925      0.376827      0.535608     Biso  1.000000 I
   I75        1.0     0.488925      0.876827      0.035608     Biso  1.000000 I
   I76        1.0     0.488925      0.876827      0.535608     Biso  1.000000 I
   I77        1.0     0.988925      0.376827      0.035608     Biso  1.000000 I
   I78        1.0     0.988925      0.376827      0.535608     Biso  1.000000 I
   I79        1.0     0.988925      0.876827      0.035608     Biso  1.000000 I
   I80        1.0     0.988925      0.876827      0.535608     Biso  1.000000 I
   I81        1.0     0.246779      0.373128      0.983395     Biso  1.000000 I
   I82        1.0     0.246779      0.373128      0.483395     Biso  1.000000 I
   I83        1.0     0.246779      0.873128      0.983395     Biso  1.000000 I
   I84        1.0     0.246779      0.873128      0.483395     Biso  1.000000 I
   I85        1.0     0.746779      0.373128      0.983395     Biso  1.000000 I
   I86        1.0     0.746779      0.373128      0.483395     Biso  1.000000 I
   I87        1.0     0.746779      0.873128      0.983395     Biso  1.000000 I
   I88        1.0     0.746779      0.873128      0.483395     Biso  1.000000 I
   I89        1.0     0.996779      0.123128      0.983395     Biso  1.000000 I
   I90        1.0     0.996779      0.123128      0.483395     Biso  1.000000 I
   I91        1.0     0.996779      0.623128      0.983395     Biso  1.000000 I
   I92        1.0     0.996779      0.623128      0.483395     Biso  1.000000 I
   I93        1.0     0.496779      0.123128      0.983395     Biso  1.000000 I
   I94        1.0     0.496779      0.123128      0.483395     Biso  1.000000 I
   I95        1.0     0.496779      0.623128      0.983395     Biso  1.000000 I
   I96        1.0     0.496779      0.623128      0.483395     Biso  1.000000 I
   I97        1.0     0.126606      0.479020      0.994091     Biso  1.000000 I
   I98        1.0     0.126606      0.479020      0.494091     Biso  1.000000 I
   I99        1.0     0.126606      0.979020      0.994091     Biso  1.000000 I
   I100       1.0     0.126606      0.979020      0.494091     Biso  1.000000 I
   I101       1.0     0.626606      0.479020      0.994091     Biso  1.000000 I
   I102       1.0     0.626606      0.479020      0.494091     Biso  1.000000 I
   I103       1.0     0.626606      0.979020      0.994091     Biso  1.000000 I
   I104       1.0     0.626606      0.979020      0.494091     Biso  1.000000 I
   I105       1.0     0.376606      0.229020      0.994091     Biso  1.000000 I
   I106       1.0     0.376606      0.229020      0.494091     Biso  1.000000 I
   I107       1.0     0.376606      0.729020      0.994091     Biso  1.000000 I
   I108       1.0     0.376606      0.729020      0.494091     Biso  1.000000 I
   I109       1.0     0.876606      0.229020      0.994091     Biso  1.000000 I
   I110       1.0     0.876606      0.229020      0.494091     Biso  1.000000 I
   I111       1.0     0.876606      0.729020      0.994091     Biso  1.000000 I
   I112       1.0     0.876606      0.729020      0.494091     Biso  1.000000 I
   I113       1.0     0.380446      0.993924      0.018327     Biso  1.000000 I
   I114       1.0     0.380446      0.993924      0.518327     Biso  1.000000 I
   I115       1.0     0.380446      0.493924      0.018327     Biso  1.000000 I
   I116       1.0     0.380446      0.493924      0.518327     Biso  1.000000 I
   I117       1.0     0.880446      0.993924      0.018327     Biso  1.000000 I
   I118       1.0     0.880446      0.993924      0.518327     Biso  1.000000 I
   I119       1.0     0.880446      0.493924      0.018327     Biso  1.000000 I
   I120       1.0     0.880446      0.493924      0.518327     Biso  1.000000 I
   I121       1.0     0.130446      0.243924      0.018327     Biso  1.000000 I
   I122       1.0     0.130446      0.243924      0.518327     Biso  1.000000 I
   I123       1.0     0.130446      0.743924      0.018327     Biso  1.000000 I
   I124       1.0     0.130446      0.743924      0.518327     Biso  1.000000 I
   I125       1.0     0.630446      0.243924      0.018327     Biso  1.000000 I
   I126       1.0     0.630446      0.243924      0.518327     Biso  1.000000 I
   I127       1.0     0.630446      0.743924      0.018327     Biso  1.000000 I
   I128       1.0     0.630446      0.743924      0.518327     Biso  1.000000 I
   I129       1.0     0.119441      0.051643      0.259015     Biso  1.000000 I
   I130       1.0     0.119441      0.051643      0.759016     Biso  1.000000 I
   I131       1.0     0.119441      0.551643      0.259015     Biso  1.000000 I
   I132       1.0     0.119441      0.551643      0.759016     Biso  1.000000 I
   I133       1.0     0.619441      0.051643      0.259015     Biso  1.000000 I
   I134       1.0     0.619441      0.051643      0.759016     Biso  1.000000 I
   I135       1.0     0.619441      0.551643      0.259015     Biso  1.000000 I
   I136       1.0     0.619441      0.551643      0.759016     Biso  1.000000 I
   I137       1.0     0.369441      0.301643      0.259015     Biso  1.000000 I
   I138       1.0     0.369441      0.301643      0.759016     Biso  1.000000 I
   I139       1.0     0.369441      0.801643      0.259015     Biso  1.000000 I
   I140       1.0     0.369441      0.801643      0.759016     Biso  1.000000 I
   I141       1.0     0.869441      0.301643      0.259015     Biso  1.000000 I
   I142       1.0     0.869441      0.301643      0.759016     Biso  1.000000 I
   I143       1.0     0.869441      0.801643      0.259015     Biso  1.000000 I
   I144       1.0     0.869441      0.801643      0.759016     Biso  1.000000 I
   I145       1.0     0.377039      0.469401      0.249716     Biso  1.000000 I
   I146       1.0     0.377039      0.469401      0.749716     Biso  1.000000 I
   I147       1.0     0.377039      0.969401      0.249716     Biso  1.000000 I
   I148       1.0     0.377039      0.969401      0.749716     Biso  1.000000 I
   I149       1.0     0.877039      0.469401      0.249716     Biso  1.000000 I
   I150       1.0     0.877039      0.469401      0.749716     Biso  1.000000 I
   I151       1.0     0.877039      0.969401      0.249716     Biso  1.000000 I
   I152       1.0     0.877039      0.969401      0.749716     Biso  1.000000 I
   I153       1.0     0.127039      0.219401      0.249716     Biso  1.000000 I
   I154       1.0     0.127039      0.219401      0.749716     Biso  1.000000 I
   I155       1.0     0.127039      0.719401      0.249716     Biso  1.000000 I
   I156       1.0     0.127039      0.719401      0.749716     Biso  1.000000 I
   I157       1.0     0.627039      0.219401      0.249716     Biso  1.000000 I
   I158       1.0     0.627039      0.219401      0.749716     Biso  1.000000 I
   I159       1.0     0.627039      0.719401      0.249716     Biso  1.000000 I
   I160       1.0     0.627039      0.719401      0.749716     Biso  1.000000 I
   I161       1.0     0.285400      0.128173      0.235097     Biso  1.000000 I
   I162       1.0     0.285400      0.128173      0.735097     Biso  1.000000 I
   I163       1.0     0.285400      0.628173      0.235097     Biso  1.000000 I
   I164       1.0     0.285400      0.628173      0.735097     Biso  1.000000 I
   I165       1.0     0.785400      0.128173      0.235097     Biso  1.000000 I
   I166       1.0     0.785400      0.128173      0.735097     Biso  1.000000 I
   I167       1.0     0.785400      0.628173      0.235097     Biso  1.000000 I
   I168       1.0     0.785400      0.628173      0.735097     Biso  1.000000 I
   I169       1.0     0.035400      0.378173      0.235097     Biso  1.000000 I
   I170       1.0     0.035400      0.378173      0.735097     Biso  1.000000 I
   I171       1.0     0.035400      0.878173      0.235097     Biso  1.000000 I
   I172       1.0     0.035400      0.878173      0.735097     Biso  1.000000 I
   I173       1.0     0.535400      0.378173      0.235097     Biso  1.000000 I
   I174       1.0     0.535400      0.378173      0.735097     Biso  1.000000 I
   I175       1.0     0.535400      0.878173      0.235097     Biso  1.000000 I
   I176       1.0     0.535400      0.878173      0.735097     Biso  1.000000 I
   I177       1.0     0.213018      0.379308      0.262308     Biso  1.000000 I
   I178       1.0     0.213018      0.379308      0.762308     Biso  1.000000 I
   I179       1.0     0.213018      0.879308      0.262308     Biso  1.000000 I
   I180       1.0     0.213018      0.879308      0.762308     Biso  1.000000 I
   I181       1.0     0.713018      0.379308      0.262308     Biso  1.000000 I
   I182       1.0     0.713018      0.379308      0.762308     Biso  1.000000 I
   I183       1.0     0.713018      0.879308      0.262308     Biso  1.000000 I
   I184       1.0     0.713018      0.879308      0.762308     Biso  1.000000 I
   I185       1.0     0.463018      0.129308      0.262308     Biso  1.000000 I
   I186       1.0     0.463018      0.129308      0.762308     Biso  1.000000 I
   I187       1.0     0.463018      0.629308      0.262308     Biso  1.000000 I
   I188       1.0     0.463018      0.629308      0.762308     Biso  1.000000 I
   I189       1.0     0.963018      0.129308      0.262308     Biso  1.000000 I
   I190       1.0     0.963018      0.129308      0.762308     Biso  1.000000 I
   I191       1.0     0.963018      0.629308      0.262308     Biso  1.000000 I
   I192       1.0     0.963018      0.629308      0.762308     Biso  1.000000 I
   N1         1.0     0.422158      0.378899      0.152086     Biso  1.000000 N
   N2         1.0     0.422158      0.378899      0.652086     Biso  1.000000 N
   N3         1.0     0.422158      0.878899      0.152086     Biso  1.000000 N
   N4         1.0     0.422158      0.878899      0.652086     Biso  1.000000 N
   N5         1.0     0.922158      0.378899      0.152086     Biso  1.000000 N
   N6         1.0     0.922158      0.378899      0.652086     Biso  1.000000 N
   N7         1.0     0.922158      0.878899      0.152086     Biso  1.000000 N
   N8         1.0     0.922158      0.878899      0.652086     Biso  1.000000 N
   N9         1.0     0.172158      0.128899      0.152086     Biso  1.000000 N
   N10        1.0     0.172158      0.128899      0.652086     Biso  1.000000 N
   N11        1.0     0.172158      0.628899      0.152086     Biso  1.000000 N
   N12        1.0     0.172158      0.628899      0.652086     Biso  1.000000 N
   N13        1.0     0.672158      0.128899      0.152086     Biso  1.000000 N
   N14        1.0     0.672158      0.128899      0.652086     Biso  1.000000 N
   N15        1.0     0.672158      0.628899      0.152086     Biso  1.000000 N
   N16        1.0     0.672158      0.628899      0.652086     Biso  1.000000 N
   N17        1.0     0.355107      0.104429      0.111251     Biso  1.000000 N
   N18        1.0     0.355107      0.104429      0.611251     Biso  1.000000 N
   N19        1.0     0.355107      0.604429      0.111251     Biso  1.000000 N
   N20        1.0     0.355107      0.604429      0.611251     Biso  1.000000 N
   N21        1.0     0.855107      0.104429      0.111251     Biso  1.000000 N
   N22        1.0     0.855107      0.104429      0.611251     Biso  1.000000 N
   N23        1.0     0.855107      0.604429      0.111251     Biso  1.000000 N
   N24        1.0     0.855107      0.604429      0.611251     Biso  1.000000 N
   N25        1.0     0.105107      0.354429      0.111251     Biso  1.000000 N
   N26        1.0     0.105107      0.354429      0.611251     Biso  1.000000 N
   N27        1.0     0.105107      0.854429      0.111251     Biso  1.000000 N
   N28        1.0     0.105107      0.854429      0.611251     Biso  1.000000 N
   N29        1.0     0.605107      0.354429      0.111251     Biso  1.000000 N
   N30        1.0     0.605107      0.354429      0.611251     Biso  1.000000 N
   N31        1.0     0.605107      0.854429      0.111251     Biso  1.000000 N
   N32        1.0     0.605107      0.854429      0.611251     Biso  1.000000 N
   N33        1.0     0.323155      0.392790      0.366394     Biso  1.000000 N
   N34        1.0     0.323155      0.392790      0.866394     Biso  1.000000 N
   N35        1.0     0.323155      0.892790      0.366394     Biso  1.000000 N
   N36        1.0     0.323155      0.892790      0.866394     Biso  1.000000 N
   N37        1.0     0.823155      0.392790      0.366394     Biso  1.000000 N
   N38        1.0     0.823155      0.392790      0.866394     Biso  1.000000 N
   N39        1.0     0.823155      0.892790      0.366394     Biso  1.000000 N
   N40        1.0     0.823155      0.892790      0.866394     Biso  1.000000 N
   N41        1.0     0.073155      0.142790      0.366394     Biso  1.000000 N
   N42        1.0     0.073155      0.142790      0.866394     Biso  1.000000 N
   N43        1.0     0.073155      0.642790      0.366394     Biso  1.000000 N
   N44        1.0     0.073155      0.642790      0.866394     Biso  1.000000 N
   N45        1.0     0.573155      0.142790      0.366394     Biso  1.000000 N
   N46        1.0     0.573155      0.142790      0.866394     Biso  1.000000 N
   N47        1.0     0.573155      0.642790      0.366394     Biso  1.000000 N
   N48        1.0     0.573155      0.642790      0.866394     Biso  1.000000 N
   N49        1.0     0.373188      0.156527      0.370241     Biso  1.000000 N
   N50        1.0     0.373188      0.156527      0.870241     Biso  1.000000 N
   N51        1.0     0.373188      0.656528      0.370241     Biso  1.000000 N
   N52        1.0     0.373188      0.656528      0.870241     Biso  1.000000 N
   N53        1.0     0.873188      0.156527      0.370241     Biso  1.000000 N
   N54        1.0     0.873188      0.156527      0.870241     Biso  1.000000 N
   N55        1.0     0.873188      0.656528      0.370241     Biso  1.000000 N
   N56        1.0     0.873188      0.656528      0.870241     Biso  1.000000 N
   N57        1.0     0.123188      0.406527      0.370241     Biso  1.000000 N
   N58        1.0     0.123188      0.406527      0.870241     Biso  1.000000 N
   N59        1.0     0.123188      0.906528      0.370241     Biso  1.000000 N
   N60        1.0     0.123188      0.906528      0.870241     Biso  1.000000 N
   N61        1.0     0.623188      0.406527      0.370241     Biso  1.000000 N
   N62        1.0     0.623188      0.406527      0.870241     Biso  1.000000 N
   N63        1.0     0.623188      0.906528      0.370241     Biso  1.000000 N
   N64        1.0     0.623188      0.906528      0.870241     Biso  1.000000 N
   Pb1        1.0     0.001392      0.007211      0.239035     Biso  1.000000 Pb
   Pb2        1.0     0.001392      0.007211      0.739035     Biso  1.000000 Pb
   Pb3        1.0     0.001392      0.507211      0.239035     Biso  1.000000 Pb
   Pb4        1.0     0.001392      0.507211      0.739035     Biso  1.000000 Pb
   Pb5        1.0     0.501392      0.007211      0.239035     Biso  1.000000 Pb
   Pb6        1.0     0.501392      0.007211      0.739035     Biso  1.000000 Pb
   Pb7        1.0     0.501392      0.507211      0.239035     Biso  1.000000 Pb
   Pb8        1.0     0.501392      0.507211      0.739035     Biso  1.000000 Pb
   Pb9        1.0     0.251392      0.257211      0.239035     Biso  1.000000 Pb
   Pb10       1.0     0.251392      0.257211      0.739035     Biso  1.000000 Pb
   Pb11       1.0     0.251392      0.757211      0.239035     Biso  1.000000 Pb
   Pb12       1.0     0.251392      0.757211      0.739035     Biso  1.000000 Pb
   Pb13       1.0     0.751392      0.257211      0.239035     Biso  1.000000 Pb
   Pb14       1.0     0.751392      0.257211      0.739035     Biso  1.000000 Pb
   Pb15       1.0     0.751392      0.757211      0.239035     Biso  1.000000 Pb
   Pb16       1.0     0.751392      0.757211      0.739035     Biso  1.000000 Pb
   Pb17       1.0     0.255671      0.998197      0.995921     Biso  1.000000 Pb
   Pb18       1.0     0.255671      0.998197      0.495921     Biso  1.000000 Pb
   Pb19       1.0     0.255671      0.498197      0.995921     Biso  1.000000 Pb
   Pb20       1.0     0.255671      0.498197      0.495921     Biso  1.000000 Pb
   Pb21       1.0     0.755671      0.998197      0.995921     Biso  1.000000 Pb
   Pb22       1.0     0.755671      0.998197      0.495921     Biso  1.000000 Pb
   Pb23       1.0     0.755671      0.498197      0.995921     Biso  1.000000 Pb
   Pb24       1.0     0.755671      0.498197      0.495921     Biso  1.000000 Pb
   Pb25       1.0     0.005671      0.248197      0.995921     Biso  1.000000 Pb
   Pb26       1.0     0.005671      0.248197      0.495921     Biso  1.000000 Pb
   Pb27       1.0     0.005671      0.748197      0.995921     Biso  1.000000 Pb
   Pb28       1.0     0.005671      0.748197      0.495921     Biso  1.000000 Pb
   Pb29       1.0     0.505671      0.248197      0.995921     Biso  1.000000 Pb
   Pb30       1.0     0.505671      0.248197      0.495921     Biso  1.000000 Pb
   Pb31       1.0     0.505671      0.748197      0.995921     Biso  1.000000 Pb
   Pb32       1.0     0.505671      0.748197      0.495921     Biso  1.000000 Pb
   Pb33       1.0     0.252911      0.000142      0.244865     Biso  1.000000 Pb
   Pb34       1.0     0.252911      0.000142      0.744865     Biso  1.000000 Pb
   Pb35       1.0     0.252911      0.500142      0.244865     Biso  1.000000 Pb
   Pb36       1.0     0.252911      0.500142      0.744865     Biso  1.000000 Pb
   Pb37       1.0     0.752911      0.000142      0.244865     Biso  1.000000 Pb
   Pb38       1.0     0.752911      0.000142      0.744865     Biso  1.000000 Pb
   Pb39       1.0     0.752911      0.500142      0.244865     Biso  1.000000 Pb
   Pb40       1.0     0.752911      0.500142      0.744865     Biso  1.000000 Pb
   Pb41       1.0     0.002911      0.250142      0.244865     Biso  1.000000 Pb
   Pb42       1.0     0.002911      0.250142      0.744865     Biso  1.000000 Pb
   Pb43       1.0     0.002911      0.750142      0.244865     Biso  1.000000 Pb
   Pb44       1.0     0.002911      0.750142      0.744865     Biso  1.000000 Pb
   Pb45       1.0     0.502911      0.250142      0.244865     Biso  1.000000 Pb
   Pb46       1.0     0.502911      0.250142      0.744865     Biso  1.000000 Pb
   Pb47       1.0     0.502911      0.750142      0.244865     Biso  1.000000 Pb
   Pb48       1.0     0.502911      0.750142      0.744865     Biso  1.000000 Pb
   Pb49       1.0     0.007540      0.993843      0.996144     Biso  1.000000 Pb
   Pb50       1.0     0.007540      0.993843      0.496144     Biso  1.000000 Pb
   Pb51       1.0     0.007540      0.493843      0.996144     Biso  1.000000 Pb
   Pb52       1.0     0.007540      0.493843      0.496144     Biso  1.000000 Pb
   Pb53       1.0     0.507540      0.993843      0.996144     Biso  1.000000 Pb
   Pb54       1.0     0.507540      0.993843      0.496144     Biso  1.000000 Pb
   Pb55       1.0     0.507540      0.493843      0.996144     Biso  1.000000 Pb
   Pb56       1.0     0.507540      0.493843      0.496144     Biso  1.000000 Pb
   Pb57       1.0     0.257540      0.243843      0.996144     Biso  1.000000 Pb
   Pb58       1.0     0.257540      0.243843      0.496144     Biso  1.000000 Pb
   Pb59       1.0     0.257540      0.743843      0.996144     Biso  1.000000 Pb
   Pb60       1.0     0.257540      0.743843      0.496144     Biso  1.000000 Pb
   Pb61       1.0     0.757540      0.243843      0.996144     Biso  1.000000 Pb
   Pb62       1.0     0.757540      0.243843      0.496144     Biso  1.000000 Pb
   Pb63       1.0     0.757540      0.743843      0.996144     Biso  1.000000 Pb
   Pb64       1.0     0.757540      0.743843      0.496144     Biso  1.000000 Pb
